[Format]      =  4.0
[Frequency]   =  50000
[Precision]   =  1e-008
[MinAngle]    =  30
[DoSmartMesh] =  1
[Depth]       =  1
[LengthUnits] =  millimeters
[ProblemType] =  axisymmetric
[extZo] = 22
[extRo] = 1
[extRi] = 20
[Coordinates] =  cartesian
[ACSolver]    =  0
[PrevType]    =  0
[PrevSoln]    =  ""
[Comment]     =  "Add comments here."
[PointProps]   = 0
[BdryProps]   = 1
  <BeginBdry>
    <BdryName> = "pbc"
    <BdryType> = 4
    <A_0> = 0
    <A_1> = 0
    <A_2> = 0
    <Phi> = 0
    <c0> = 0
    <c0i> = 0
    <c1> = 0
    <c1i> = 0
    <Mu_ssd> = 0
    <Sigma_ssd> = 0
    <innerangle> = 0
    <outerangle> = 0
  <EndBdry>
[BlockProps]  = 2
  <BeginBlock>
    <BlockName> = "Copper"
    <Mu_x> = 1
    <Mu_y> = 1
    <H_c> = 0
    <H_cAngle> = 0
    <J_re> = 0
    <J_im> = 0
    <Sigma> = 58
    <d_lam> = 0
    <Phi_h> = 0
    <Phi_hx> = 0
    <Phi_hy> = 0
    <LamType> = 0
    <LamFill> = 1
    <NStrands> = 0
    <WireD> = 0
    <BHPoints> = 0
  <EndBlock>
  <BeginBlock>
    <BlockName> = "Air"
    <Mu_x> = 1
    <Mu_y> = 1
    <H_c> = 0
    <H_cAngle> = 0
    <J_re> = 0
    <J_im> = 0
    <Sigma> = 0
    <d_lam> = 0
    <Phi_h> = 0
    <Phi_hx> = 0
    <Phi_hy> = 0
    <LamType> = 0
    <LamFill> = 1
    <NStrands> = 0
    <WireD> = 0
    <BHPoints> = 0
  <EndBlock>
[CircuitProps]  = 1
  <BeginCircuit>
    <CircuitName> = "icoil"
    <TotalAmps_re> = 1
    <TotalAmps_im> = 0
    <CircuitType> = 1
  <EndCircuit>
[NumPoints] = 234
5.5999999999999996	4.9000000000000004	0	0
5.5999999999999996	5.9000000000000004	0	0
5.5999999999999996	3.7000000000000002	0	0
5.5999999999999996	4.7000000000000002	0	0
5.6000000000000005	2.5000000000000004	0	0
5.5999999999999996	3.5000000000000004	0	0
5.6000000000000005	1.3000000000000007	0	0
5.6000000000000005	2.3000000000000007	0	0
5.6000000000000005	0.10000000000000053	0	0
5.6000000000000005	1.1000000000000005	0	0
5.6000000000000005	-1.0999999999999996	0	0
5.6000000000000005	-0.099999999999999645	0	0
5.6000000000000005	-2.2999999999999989	0	0
5.6000000000000005	-1.2999999999999989	0	0
5.6000000000000005	-3.5	0	0
5.6000000000000005	-2.5	0	0
5.6000000000000005	-4.6999999999999993	0	0
5.6000000000000005	-3.6999999999999993	0	0
5.6000000000000005	-5.8999999999999986	0	0
5.6000000000000005	-4.8999999999999986	0	0
6.6392304845413257	4.3000000000000007	0	0
6.6392304845413257	5.3000000000000007	0	0
6.6392304845413257	3.1000000000000005	0	0
6.6392304845413257	4.1000000000000005	0	0
6.6392304845413257	1.9000000000000004	0	0
6.6392304845413257	2.9000000000000004	0	0
6.6392304845413257	0.70000000000000107	0	0
6.6392304845413257	1.7000000000000006	0	0
6.6392304845413266	-0.49999999999999911	0	0
6.6392304845413257	0.50000000000000089	0	0
6.6392304845413266	-1.6999999999999993	0	0
6.6392304845413266	-0.69999999999999929	0	0
6.6392304845413266	-2.8999999999999986	0	0
6.6392304845413266	-1.8999999999999986	0	0
6.6392304845413266	-4.0999999999999996	0	0
6.6392304845413266	-3.0999999999999996	0	0
6.6392304845413266	-5.2999999999999989	0	0
6.6392304845413266	-4.2999999999999989	0	0
7.6784609690826535	4.9000000000000004	0	0
7.6784609690826535	5.9000000000000004	0	0
7.6784609690826535	3.7000000000000006	0	0
7.6784609690826535	4.7000000000000002	0	0
7.6784609690826535	2.5000000000000004	0	0
7.6784609690826535	3.5000000000000009	0	0
7.6784609690826535	1.3000000000000007	0	0
7.6784609690826535	2.3000000000000007	0	0
7.6784609690826535	0.10000000000000053	0	0
7.6784609690826535	1.1000000000000005	0	0
7.6784609690826535	-1.0999999999999996	0	0
7.6784609690826535	-0.099999999999999645	0	0
7.6784609690826535	-2.2999999999999989	0	0
7.6784609690826535	-1.2999999999999989	0	0
7.6784609690826535	-3.5	0	0
7.6784609690826535	-2.5	0	0
7.6784609690826535	-4.6999999999999993	0	0
7.6784609690826535	-3.6999999999999993	0	0
7.6784609690826535	-5.8999999999999986	0	0
7.6784609690826535	-4.8999999999999986	0	0
8.7176914536239796	4.3000000000000007	0	0
8.7176914536239796	5.3000000000000007	0	0
8.7176914536239796	3.1000000000000005	0	0
8.7176914536239796	4.1000000000000005	0	0
8.7176914536239796	1.9000000000000004	0	0
8.7176914536239796	2.9000000000000004	0	0
8.7176914536239796	0.70000000000000107	0	0
8.7176914536239796	1.7000000000000006	0	0
8.7176914536239796	-0.49999999999999911	0	0
8.7176914536239796	0.50000000000000089	0	0
8.7176914536239796	-1.6999999999999993	0	0
8.7176914536239796	-0.69999999999999929	0	0
8.7176914536239796	-2.8999999999999986	0	0
8.7176914536239796	-1.8999999999999986	0	0
8.7176914536239796	-4.0999999999999996	0	0
8.7176914536239796	-3.0999999999999996	0	0
8.7176914536239796	-5.2999999999999989	0	0
8.7176914536239796	-4.2999999999999989	0	0
9.7569219381653056	4.9000000000000004	0	0
9.7569219381653056	5.9000000000000004	0	0
9.7569219381653056	3.7000000000000006	0	0
9.7569219381653056	4.7000000000000011	0	0
9.7569219381653056	2.5000000000000009	0	0
9.7569219381653056	3.5000000000000009	0	0
9.7569219381653056	1.3000000000000007	0	0
9.7569219381653056	2.3000000000000012	0	0
9.7569219381653056	0.10000000000000053	0	0
9.7569219381653056	1.1000000000000005	0	0
9.7569219381653056	-1.0999999999999996	0	0
9.7569219381653056	-0.099999999999999645	0	0
9.7569219381653056	-2.2999999999999989	0	0
9.7569219381653056	-1.2999999999999989	0	0
9.7569219381653056	-3.5	0	0
9.7569219381653056	-2.5	0	0
9.7569219381653056	-4.6999999999999993	0	0
9.7569219381653056	-3.6999999999999993	0	0
9.7569219381653056	-5.8999999999999986	0	0
9.7569219381653056	-4.8999999999999986	0	0
10.796152422706632	4.3000000000000007	0	0
10.796152422706632	5.3000000000000007	0	0
10.796152422706632	3.100000000000001	0	0
10.796152422706632	4.1000000000000005	0	0
10.796152422706632	1.9000000000000008	0	0
10.796152422706632	2.9000000000000008	0	0
10.796152422706632	0.70000000000000107	0	0
10.796152422706632	1.7000000000000011	0	0
10.796152422706632	-0.49999999999999911	0	0
10.796152422706632	0.50000000000000089	0	0
10.796152422706632	-1.6999999999999993	0	0
10.796152422706632	-0.69999999999999929	0	0
10.796152422706633	-2.8999999999999986	0	0
10.796152422706633	-1.8999999999999986	0	0
10.796152422706633	-4.0999999999999996	0	0
10.796152422706633	-3.0999999999999996	0	0
10.796152422706633	-5.2999999999999989	0	0
10.796152422706633	-4.2999999999999989	0	0
11.835382907247958	4.9000000000000004	0	0
11.835382907247958	5.9000000000000004	0	0
11.835382907247958	3.7000000000000011	0	0
11.835382907247958	4.7000000000000011	0	0
11.835382907247958	2.5000000000000009	0	0
11.835382907247958	3.5000000000000009	0	0
11.835382907247958	1.3000000000000007	0	0
11.835382907247958	2.3000000000000012	0	0
11.835382907247958	0.10000000000000053	0	0
11.835382907247958	1.1000000000000005	0	0
11.835382907247958	-1.0999999999999996	0	0
11.835382907247958	-0.099999999999999645	0	0
11.835382907247959	-2.2999999999999989	0	0
11.835382907247958	-1.2999999999999989	0	0
11.835382907247959	-3.5	0	0
11.835382907247959	-2.5	0	0
11.835382907247959	-4.6999999999999993	0	0
11.835382907247959	-3.6999999999999993	0	0
11.835382907247959	-5.8999999999999986	0	0
11.835382907247959	-4.8999999999999986	0	0
12.874613391789286	4.3000000000000007	0	0
12.874613391789286	5.3000000000000007	0	0
12.874613391789286	3.100000000000001	0	0
12.874613391789286	4.1000000000000014	0	0
12.874613391789286	1.9000000000000008	0	0
12.874613391789286	2.9000000000000008	0	0
12.874613391789286	0.70000000000000195	0	0
12.874613391789286	1.7000000000000011	0	0
12.874613391789286	-0.49999999999999822	0	0
12.874613391789286	0.50000000000000178	0	0
12.874613391789286	-1.6999999999999984	0	0
12.874613391789286	-0.6999999999999984	0	0
12.874613391789286	-2.8999999999999986	0	0
12.874613391789286	-1.8999999999999977	0	0
12.874613391789286	-4.0999999999999996	0	0
12.874613391789286	-3.0999999999999996	0	0
12.874613391789286	-5.2999999999999989	0	0
12.874613391789286	-4.2999999999999989	0	0
13.913843876330612	4.9000000000000012	0	0
13.913843876330612	5.9000000000000012	0	0
13.913843876330612	3.7000000000000011	0	0
13.913843876330612	4.7000000000000011	0	0
13.913843876330612	2.5000000000000009	0	0
13.913843876330612	3.5000000000000009	0	0
13.913843876330612	1.3000000000000016	0	0
13.913843876330612	2.3000000000000012	0	0
13.913843876330612	0.10000000000000142	0	0
13.913843876330612	1.1000000000000014	0	0
13.913843876330612	-1.0999999999999988	0	0
13.913843876330612	-0.099999999999998757	0	0
13.913843876330612	-2.299999999999998	0	0
13.913843876330612	-1.299999999999998	0	0
13.913843876330612	-3.5	0	0
13.913843876330612	-2.4999999999999991	0	0
13.913843876330612	-4.6999999999999993	0	0
13.913843876330612	-3.6999999999999993	0	0
13.913843876330612	-5.8999999999999986	0	0
13.913843876330612	-4.8999999999999986	0	0
14.953074360871938	4.3000000000000007	0	0
14.953074360871938	5.3000000000000007	0	0
14.953074360871938	3.100000000000001	0	0
14.953074360871938	4.1000000000000014	0	0
14.953074360871938	1.9000000000000008	0	0
14.953074360871938	2.9000000000000008	0	0
14.953074360871938	0.70000000000000195	0	0
14.953074360871938	1.7000000000000011	0	0
14.953074360871938	-0.49999999999999822	0	0
14.953074360871938	0.50000000000000178	0	0
14.953074360871938	-1.6999999999999984	0	0
14.953074360871938	-0.6999999999999984	0	0
14.953074360871938	-2.8999999999999986	0	0
14.953074360871938	-1.8999999999999977	0	0
14.953074360871938	-4.0999999999999996	0	0
14.953074360871938	-3.0999999999999996	0	0
14.953074360871938	-5.2999999999999989	0	0
14.953074360871938	-4.2999999999999989	0	0
15.992304845413264	4.9000000000000012	0	0
15.992304845413264	5.9000000000000012	0	0
15.992304845413264	3.7000000000000011	0	0
15.992304845413264	4.7000000000000011	0	0
15.992304845413264	2.5000000000000009	0	0
15.992304845413264	3.5000000000000009	0	0
15.992304845413264	1.3000000000000016	0	0
15.992304845413264	2.3000000000000012	0	0
15.992304845413264	0.10000000000000142	0	0
15.992304845413264	1.1000000000000014	0	0
15.992304845413264	-1.0999999999999988	0	0
15.992304845413264	-0.099999999999998757	0	0
15.992304845413264	-2.299999999999998	0	0
15.992304845413264	-1.299999999999998	0	0
15.992304845413264	-3.5	0	0
15.992304845413264	-2.4999999999999991	0	0
15.992304845413264	-4.6999999999999993	0	0
15.992304845413264	-3.6999999999999993	0	0
15.992304845413264	-5.8999999999999986	0	0
15.992304845413264	-4.8999999999999986	0	0
17.03153532995459	4.3000000000000007	0	0
17.03153532995459	5.3000000000000007	0	0
17.03153532995459	3.1000000000000014	0	0
17.03153532995459	4.1000000000000014	0	0
17.03153532995459	1.9000000000000012	0	0
17.03153532995459	2.9000000000000012	0	0
17.03153532995459	0.70000000000000195	0	0
17.03153532995459	1.7000000000000015	0	0
17.03153532995459	-0.49999999999999822	0	0
17.03153532995459	0.50000000000000178	0	0
17.03153532995459	-1.6999999999999984	0	0
17.03153532995459	-0.6999999999999984	0	0
17.03153532995459	-2.8999999999999986	0	0
17.03153532995459	-1.8999999999999977	0	0
17.03153532995459	-4.0999999999999996	0	0
17.03153532995459	-3.0999999999999996	0	0
17.03153532995459	-5.2999999999999989	0	0
17.03153532995459	-4.2999999999999989	0	0
6.9856406460551028	-5.3999999999999986	0	0
0	0	0	0
0	20	0	0
0	-20	0	0
0	21	0	0
0	23	0	0
[NumSegments] = 3
230	229	-1	0	0	0
229	231	-1	0	0	0
233	232	-1	0	0	0
[NumArcSegments] = 230
0	1	180	5	0	0	0	5
1	0	180	5	0	0	0	5
2	3	180	5	0	0	0	5
3	2	180	5	0	0	0	5
4	5	180	5	0	0	0	5
5	4	180	5	0	0	0	5
6	7	180	5	0	0	0	5
7	6	180	5	0	0	0	5
8	9	180	5	0	0	0	5
9	8	180	5	0	0	0	5
10	11	180	5	0	0	0	5
11	10	180	5	0	0	0	5
12	13	180	5	0	0	0	5
13	12	180	5	0	0	0	5
14	15	180	5	0	0	0	5
15	14	180	5	0	0	0	5
16	17	180	5	0	0	0	5
17	16	180	5	0	0	0	5
18	19	180	5	0	0	0	5
19	18	180	5	0	0	0	5
20	21	180	5	0	0	0	5
21	20	180	5	0	0	0	5
22	23	180	5	0	0	0	5
23	22	180	5	0	0	0	5
24	25	180	5	0	0	0	5
25	24	180	5	0	0	0	5
26	27	180	5	0	0	0	5
27	26	180	5	0	0	0	5
28	29	180	5	0	0	0	5
29	28	180	5	0	0	0	5
30	31	180	5	0	0	0	5
31	30	180	5	0	0	0	5
32	33	180	5	0	0	0	5
33	32	180	5	0	0	0	5
34	35	180	5	0	0	0	5
35	34	180	5	0	0	0	5
36	37	180	5	0	0	0	5
37	36	180	5	0	0	0	5
38	39	180	5	0	0	0	5
39	38	180	5	0	0	0	5
40	41	180	5	0	0	0	5
41	40	180	5	0	0	0	5
42	43	180	5	0	0	0	5
43	42	180	5	0	0	0	5
44	45	180	5	0	0	0	5
45	44	180	5	0	0	0	5
46	47	180	5	0	0	0	5
47	46	180	5	0	0	0	5
48	49	180	5	0	0	0	5
49	48	180	5	0	0	0	5
50	51	180	5	0	0	0	5
51	50	180	5	0	0	0	5
52	53	180	5	0	0	0	5
53	52	180	5	0	0	0	5
54	55	180	5	0	0	0	5
55	54	180	5	0	0	0	5
56	57	180	5	0	0	0	5
57	56	180	5	0	0	0	5
58	59	180	5	0	0	0	5
59	58	180	5	0	0	0	5
60	61	180	5	0	0	0	5
61	60	180	5	0	0	0	5
62	63	180	5	0	0	0	5
63	62	180	5	0	0	0	5
64	65	180	5	0	0	0	5
65	64	180	5	0	0	0	5
66	67	180	5	0	0	0	5
67	66	180	5	0	0	0	5
68	69	180	5	0	0	0	5
69	68	180	5	0	0	0	5
70	71	180	5	0	0	0	5
71	70	180	5	0	0	0	5
72	73	180	5	0	0	0	5
73	72	180	5	0	0	0	5
74	75	180	5	0	0	0	5
75	74	180	5	0	0	0	5
76	77	180	5	0	0	0	5
77	76	180	5	0	0	0	5
78	79	180	5	0	0	0	5
79	78	180	5	0	0	0	5
80	81	180	5	0	0	0	5
81	80	180	5	0	0	0	5
82	83	180	5	0	0	0	5
83	82	180	5	0	0	0	5
84	85	180	5	0	0	0	5
85	84	180	5	0	0	0	5
86	87	180	5	0	0	0	5
87	86	180	5	0	0	0	5
88	89	180	5	0	0	0	5
89	88	180	5	0	0	0	5
90	91	180	5	0	0	0	5
91	90	180	5	0	0	0	5
92	93	180	5	0	0	0	5
93	92	180	5	0	0	0	5
94	95	180	5	0	0	0	5
95	94	180	5	0	0	0	5
96	97	180	5	0	0	0	5
97	96	180	5	0	0	0	5
98	99	180	5	0	0	0	5
99	98	180	5	0	0	0	5
100	101	180	5	0	0	0	5
101	100	180	5	0	0	0	5
102	103	180	5	0	0	0	5
103	102	180	5	0	0	0	5
104	105	180	5	0	0	0	5
105	104	180	5	0	0	0	5
106	107	180	5	0	0	0	5
107	106	180	5	0	0	0	5
108	109	180	5	0	0	0	5
109	108	180	5	0	0	0	5
110	111	180	5	0	0	0	5
111	110	180	5	0	0	0	5
112	113	180	5	0	0	0	5
113	112	180	5	0	0	0	5
114	115	180	5	0	0	0	5
115	114	180	5	0	0	0	5
116	117	180	5	0	0	0	5
117	116	180	5	0	0	0	5
118	119	180	5	0	0	0	5
119	118	180	5	0	0	0	5
120	121	180	5	0	0	0	5
121	120	180	5	0	0	0	5
122	123	180	5	0	0	0	5
123	122	180	5	0	0	0	5
124	125	180	5	0	0	0	5
125	124	180	5	0	0	0	5
126	127	180	5	0	0	0	5
127	126	180	5	0	0	0	5
128	129	180	5	0	0	0	5
129	128	180	5	0	0	0	5
130	131	180	5	0	0	0	5
131	130	180	5	0	0	0	5
132	133	180	5	0	0	0	5
133	132	180	5	0	0	0	5
134	135	180	5	0	0	0	5
135	134	180	5	0	0	0	5
136	137	180	5	0	0	0	5
137	136	180	5	0	0	0	5
138	139	180	5	0	0	0	5
139	138	180	5	0	0	0	5
140	141	180	5	0	0	0	5
141	140	180	5	0	0	0	5
142	143	180	5	0	0	0	5
143	142	180	5	0	0	0	5
144	145	180	5	0	0	0	5
145	144	180	5	0	0	0	5
146	147	180	5	0	0	0	5
147	146	180	5	0	0	0	5
148	149	180	5	0	0	0	5
149	148	180	5	0	0	0	5
150	151	180	5	0	0	0	5
151	150	180	5	0	0	0	5
152	153	180	5	0	0	0	5
153	152	180	5	0	0	0	5
154	155	180	5	0	0	0	5
155	154	180	5	0	0	0	5
156	157	180	5	0	0	0	5
157	156	180	5	0	0	0	5
158	159	180	5	0	0	0	5
159	158	180	5	0	0	0	5
160	161	180	5	0	0	0	5
161	160	180	5	0	0	0	5
162	163	180	5	0	0	0	5
163	162	180	5	0	0	0	5
164	165	180	5	0	0	0	5
165	164	180	5	0	0	0	5
166	167	180	5	0	0	0	5
167	166	180	5	0	0	0	5
168	169	180	5	0	0	0	5
169	168	180	5	0	0	0	5
170	171	180	5	0	0	0	5
171	170	180	5	0	0	0	5
172	173	180	5	0	0	0	5
173	172	180	5	0	0	0	5
174	175	180	5	0	0	0	5
175	174	180	5	0	0	0	5
176	177	180	5	0	0	0	5
177	176	180	5	0	0	0	5
178	179	180	5	0	0	0	5
179	178	180	5	0	0	0	5
180	181	180	5	0	0	0	5
181	180	180	5	0	0	0	5
182	183	180	5	0	0	0	5
183	182	180	5	0	0	0	5
184	185	180	5	0	0	0	5
185	184	180	5	0	0	0	5
186	187	180	5	0	0	0	5
187	186	180	5	0	0	0	5
188	189	180	5	0	0	0	5
189	188	180	5	0	0	0	5
190	191	180	5	0	0	0	5
191	190	180	5	0	0	0	5
192	193	180	5	0	0	0	5
193	192	180	5	0	0	0	5
194	195	180	5	0	0	0	5
195	194	180	5	0	0	0	5
196	197	180	5	0	0	0	5
197	196	180	5	0	0	0	5
198	199	180	5	0	0	0	5
199	198	180	5	0	0	0	5
200	201	180	5	0	0	0	5
201	200	180	5	0	0	0	5
202	203	180	5	0	0	0	5
203	202	180	5	0	0	0	5
204	205	180	5	0	0	0	5
205	204	180	5	0	0	0	5
206	207	180	5	0	0	0	5
207	206	180	5	0	0	0	5
208	209	180	5	0	0	0	5
209	208	180	5	0	0	0	5
210	211	180	5	0	0	0	5
211	210	180	5	0	0	0	5
212	213	180	5	0	0	0	5
213	212	180	5	0	0	0	5
214	215	180	5	0	0	0	5
215	214	180	5	0	0	0	5
216	217	180	5	0	0	0	5
217	216	180	5	0	0	0	5
218	219	180	5	0	0	0	5
219	218	180	5	0	0	0	5
220	221	180	5	0	0	0	5
221	220	180	5	0	0	0	5
222	223	180	5	0	0	0	5
223	222	180	5	0	0	0	5
224	225	180	5	0	0	0	5
225	224	180	5	0	0	0	5
226	227	180	5	0	0	0	5
227	226	180	5	0	0	0	5
231	230	180	0.64749999999999996	1	0	0	0.63
232	233	180	0.64749999999999996	1	0	0	0.63
[NumHoles] = 0
[NumBlockLabels] = 116
5.5800000000000001	-5.4299999999999997	1	0.10000000000000001	1	0	0	1	0
7.6584609690826531	-5.4299999999999997	1	0.10000000000000001	1	0	0	1	0
9.736921938165306	-5.4299999999999997	1	0.10000000000000001	1	0	0	1	0
11.815382907247958	-5.4299999999999997	1	0.10000000000000001	1	0	0	1	0
13.893843876330612	-5.4299999999999997	1	0.10000000000000001	1	0	0	1	0
15.972304845413264	-5.4299999999999997	1	0.10000000000000001	1	0	0	1	0
6.619230484541327	-4.8300000000000001	1	0.10000000000000001	1	0	0	1	0
8.69769145362398	-4.8300000000000001	1	0.10000000000000001	1	0	0	1	0
10.776152422706634	-4.8300000000000001	1	0.10000000000000001	1	0	0	1	0
12.854613391789286	-4.8300000000000001	1	0.10000000000000001	1	0	0	1	0
14.933074360871938	-4.8300000000000001	1	0.10000000000000001	1	0	0	1	0
17.01153532995459	-4.8300000000000001	1	0.10000000000000001	1	0	0	1	0
5.5800000000000001	-4.2299999999999995	1	0.10000000000000001	1	0	0	1	0
7.6584609690826531	-4.2299999999999995	1	0.10000000000000001	1	0	0	1	0
9.736921938165306	-4.2299999999999995	1	0.10000000000000001	1	0	0	1	0
11.815382907247958	-4.2299999999999995	1	0.10000000000000001	1	0	0	1	0
13.893843876330612	-4.2299999999999995	1	0.10000000000000001	1	0	0	1	0
15.972304845413264	-4.2299999999999995	1	0.10000000000000001	1	0	0	1	0
6.619230484541327	-3.6299999999999999	1	0.10000000000000001	1	0	0	1	0
8.69769145362398	-3.6299999999999999	1	0.10000000000000001	1	0	0	1	0
10.776152422706634	-3.6299999999999999	1	0.10000000000000001	1	0	0	1	0
12.854613391789286	-3.6299999999999999	1	0.10000000000000001	1	0	0	1	0
14.933074360871938	-3.6299999999999999	1	0.10000000000000001	1	0	0	1	0
17.01153532995459	-3.6299999999999999	1	0.10000000000000001	1	0	0	1	0
5.5800000000000001	-3.0299999999999998	1	0.10000000000000001	1	0	0	1	0
7.6584609690826531	-3.0299999999999998	1	0.10000000000000001	1	0	0	1	0
9.736921938165306	-3.0299999999999998	1	0.10000000000000001	1	0	0	1	0
11.815382907247958	-3.0299999999999998	1	0.10000000000000001	1	0	0	1	0
13.893843876330612	-3.0299999999999998	1	0.10000000000000001	1	0	0	1	0
15.972304845413264	-3.0299999999999998	1	0.10000000000000001	1	0	0	1	0
6.619230484541327	-2.4300000000000002	1	0.10000000000000001	1	0	0	1	0
8.69769145362398	-2.4300000000000002	1	0.10000000000000001	1	0	0	1	0
10.776152422706634	-2.4300000000000002	1	0.10000000000000001	1	0	0	1	0
12.854613391789286	-2.4300000000000002	1	0.10000000000000001	1	0	0	1	0
14.933074360871938	-2.4300000000000002	1	0.10000000000000001	1	0	0	1	0
17.01153532995459	-2.4300000000000002	1	0.10000000000000001	1	0	0	1	0
5.5800000000000001	-1.8300000000000001	1	0.10000000000000001	1	0	0	1	0
7.6584609690826531	-1.8300000000000001	1	0.10000000000000001	1	0	0	1	0
9.736921938165306	-1.8300000000000001	1	0.10000000000000001	1	0	0	1	0
11.815382907247958	-1.8300000000000001	1	0.10000000000000001	1	0	0	1	0
13.893843876330612	-1.8300000000000001	1	0.10000000000000001	1	0	0	1	0
15.972304845413264	-1.8300000000000001	1	0.10000000000000001	1	0	0	1	0
6.619230484541327	-1.2300000000000004	1	0.10000000000000001	1	0	0	1	0
8.69769145362398	-1.2300000000000004	1	0.10000000000000001	1	0	0	1	0
10.776152422706634	-1.2300000000000004	1	0.10000000000000001	1	0	0	1	0
12.854613391789286	-1.2300000000000004	1	0.10000000000000001	1	0	0	1	0
14.933074360871938	-1.2300000000000004	1	0.10000000000000001	1	0	0	1	0
17.01153532995459	-1.2300000000000004	1	0.10000000000000001	1	0	0	1	0
5.5800000000000001	-0.62999999999999989	1	0.10000000000000001	1	0	0	1	0
7.6584609690826531	-0.62999999999999989	1	0.10000000000000001	1	0	0	1	0
9.736921938165306	-0.62999999999999989	1	0.10000000000000001	1	0	0	1	0
11.815382907247958	-0.62999999999999989	1	0.10000000000000001	1	0	0	1	0
13.893843876330612	-0.62999999999999989	1	0.10000000000000001	1	0	0	1	0
15.972304845413264	-0.62999999999999989	1	0.10000000000000001	1	0	0	1	0
6.619230484541327	-0.030000000000000249	1	0.10000000000000001	1	0	0	1	0
8.69769145362398	-0.030000000000000249	1	0.10000000000000001	1	0	0	1	0
10.776152422706634	-0.030000000000000249	1	0.10000000000000001	1	0	0	1	0
12.854613391789286	-0.030000000000000249	1	0.10000000000000001	1	0	0	1	0
14.933074360871938	-0.030000000000000249	1	0.10000000000000001	1	0	0	1	0
17.01153532995459	-0.030000000000000249	1	0.10000000000000001	1	0	0	1	0
5.5800000000000001	0.57000000000000028	1	0.10000000000000001	1	0	0	1	0
7.6584609690826531	0.57000000000000028	1	0.10000000000000001	1	0	0	1	0
9.736921938165306	0.57000000000000028	1	0.10000000000000001	1	0	0	1	0
11.815382907247958	0.57000000000000028	1	0.10000000000000001	1	0	0	1	0
13.893843876330612	0.57000000000000028	1	0.10000000000000001	1	0	0	1	0
15.972304845413264	0.57000000000000028	1	0.10000000000000001	1	0	0	1	0
6.619230484541327	1.1699999999999999	1	0.10000000000000001	1	0	0	1	0
8.69769145362398	1.1699999999999999	1	0.10000000000000001	1	0	0	1	0
10.776152422706634	1.1699999999999999	1	0.10000000000000001	1	0	0	1	0
12.854613391789286	1.1699999999999999	1	0.10000000000000001	1	0	0	1	0
14.933074360871938	1.1699999999999999	1	0.10000000000000001	1	0	0	1	0
17.01153532995459	1.1699999999999999	1	0.10000000000000001	1	0	0	1	0
5.5800000000000001	1.7700000000000002	1	0.10000000000000001	1	0	0	1	0
7.6584609690826531	1.7700000000000002	1	0.10000000000000001	1	0	0	1	0
9.736921938165306	1.7700000000000002	1	0.10000000000000001	1	0	0	1	0
11.815382907247958	1.7700000000000002	1	0.10000000000000001	1	0	0	1	0
13.893843876330612	1.7700000000000002	1	0.10000000000000001	1	0	0	1	0
15.972304845413264	1.7700000000000002	1	0.10000000000000001	1	0	0	1	0
6.619230484541327	2.3700000000000001	1	0.10000000000000001	1	0	0	1	0
8.69769145362398	2.3700000000000001	1	0.10000000000000001	1	0	0	1	0
10.776152422706634	2.3700000000000001	1	0.10000000000000001	1	0	0	1	0
12.854613391789286	2.3700000000000001	1	0.10000000000000001	1	0	0	1	0
14.933074360871938	2.3700000000000001	1	0.10000000000000001	1	0	0	1	0
17.01153532995459	2.3700000000000001	1	0.10000000000000001	1	0	0	1	0
5.5800000000000001	2.9700000000000002	1	0.10000000000000001	1	0	0	1	0
7.6584609690826531	2.9700000000000002	1	0.10000000000000001	1	0	0	1	0
9.736921938165306	2.9700000000000002	1	0.10000000000000001	1	0	0	1	0
11.815382907247958	2.9700000000000002	1	0.10000000000000001	1	0	0	1	0
13.893843876330612	2.9700000000000002	1	0.10000000000000001	1	0	0	1	0
15.972304845413264	2.9700000000000002	1	0.10000000000000001	1	0	0	1	0
6.619230484541327	3.5699999999999998	1	0.10000000000000001	1	0	0	1	0
8.69769145362398	3.5699999999999998	1	0.10000000000000001	1	0	0	1	0
10.776152422706634	3.5699999999999998	1	0.10000000000000001	1	0	0	1	0
12.854613391789286	3.5699999999999998	1	0.10000000000000001	1	0	0	1	0
14.933074360871938	3.5699999999999998	1	0.10000000000000001	1	0	0	1	0
17.01153532995459	3.5699999999999998	1	0.10000000000000001	1	0	0	1	0
5.5800000000000001	4.1699999999999999	1	0.10000000000000001	1	0	0	1	0
7.6584609690826531	4.1699999999999999	1	0.10000000000000001	1	0	0	1	0
9.736921938165306	4.1699999999999999	1	0.10000000000000001	1	0	0	1	0
11.815382907247958	4.1699999999999999	1	0.10000000000000001	1	0	0	1	0
13.893843876330612	4.1699999999999999	1	0.10000000000000001	1	0	0	1	0
15.972304845413264	4.1699999999999999	1	0.10000000000000001	1	0	0	1	0
6.619230484541327	4.7699999999999996	1	0.10000000000000001	1	0	0	1	0
8.69769145362398	4.7699999999999996	1	0.10000000000000001	1	0	0	1	0
10.776152422706634	4.7699999999999996	1	0.10000000000000001	1	0	0	1	0
12.854613391789286	4.7699999999999996	1	0.10000000000000001	1	0	0	1	0
14.933074360871938	4.7699999999999996	1	0.10000000000000001	1	0	0	1	0
17.01153532995459	4.7699999999999996	1	0.10000000000000001	1	0	0	1	0
5.5800000000000001	5.3700000000000001	1	0.10000000000000001	1	0	0	1	0
7.6584609690826531	5.3700000000000001	1	0.10000000000000001	1	0	0	1	0
9.736921938165306	5.3700000000000001	1	0.10000000000000001	1	0	0	1	0
11.815382907247958	5.3700000000000001	1	0.10000000000000001	1	0	0	1	0
13.893843876330612	5.3700000000000001	1	0.10000000000000001	1	0	0	1	0
15.972304845413264	5.3700000000000001	1	0.10000000000000001	1	0	0	1	0
0.5	21.899999999999999	2	-1	0	0	0	1	1
2.8999999999999999	15.199999999999999	2	1	0	0	0	1	0
